------- HydroDyn v2.00.* Input File --------------------------------------------
Certification Test_002.  Testing vertical multi-member pile with constant diameter.
TRUE           Echo           - Echo the input file data (flag)
---------------------- ENVIRONMENTAL CONDITIONS --------------------------------
1025.0         WtrDens        - Water density (kg/m^3)
  45.0         WtrDpth        - Water depth (meters)
   0.0         MSL2SWL        - Offset between still-water level and mean sea level (meters) [positive upward; must be zero if HasWAMIT=TRUE]
---------------------- WAVES ---------------------------------------------------
   2           WaveMod        - Incident wave kinematics model {0: none=still water, 1: plane progressive (regular), 1P#: plane progressive with user-specified phase, 2: JONSWAP/Pierson-Moskowitz spectrum (irregular), 3: White noise spectrum, 4: user-defined spectrum from routine UserWaveSpctrm (irregular), 5: GH Bladed wave data [option 5 is invalid for HasWAMIT = TRUE]} (switch)
   0           WaveStMod      - Model for stretching incident wave kinematics to instantaneous free surface {0: none=no stretching, 1: vertical stretching, 2: extrapolation stretching, 3: Wheeler stretching} (switch) [unused when WaveMod=0 or when HasWAMIT = TRUE]
3630.0         WaveTMax       - Analysis time for incident wave calculations (sec) [unused when WaveMod=0] [determines WaveDOmega=2Pi/WaveTMax in the IFFT]
   0.25        WaveDT         - Time step for incident wave calculations (sec) [unused when WaveMod=0] [0.1<=WaveDT<=1.0 recommended] [determines WaveOmegaMax=Pi/WaveDT in the IFFT]
   6.0         WaveHs         - Significant wave height of incident waves (meters) [used only when WaveMod=1, 2, or 3]
  10.0         WaveTp         - Peak-spectral period of incident waves (sec) [used only when WaveMod=1 or 2]
DEFAULT        WavePkShp      - Peak-shape parameter of incident wave spectrum (-) or DEFAULT (unquoted string) [used only when WaveMod=2] [use 1.0 for Pierson-Moskowitz]
   0.0         WvLowCOff      - Low cut-off frequency or lower frequency limit of the wave spectrum beyond which the wave spectrum is zeroed (rad/s) [used only when WaveMod=2, 4, or 5]
 500.0         WvHiCOff       - High cut-off frequency or upper frequency limit of the wave spectrum beyond which the wave spectrum is zeroed (rad/s) [used only when WaveMod=2, 4, or 5]
   0.0         WaveDir        - Incident wave propagation heading direction (degrees) [unused when WaveMod=0 or 5]
123456789      WaveSeed(1)    - First  random seed of incident waves [-2147483648 to 2147483647] (-) [unused when WaveMod=0 or 5]
1011121314     WaveSeed(2)    - Second random seed of incident waves [-2147483648 to 2147483647] (-) [unused when WaveMod=0 or 5]
 TRUE          WaveNDAmp      - Flag for normally distributed amplitudes (flag)
 ""            GHWvFile       - Root name of GH Bladed files containing wave data (quoted string) [used only when WaveMod=5]
   9           NWaveElev      - Number of points where the incident wave elevations can be computed (-) [maximum of 9 output locations]
   0.0,    0.0,   0.0,  10.0,  10.0,  10.0, -10.0, -10.0, -10.0           WaveElevxi     - List of xi-coordinates for points where the incident wave elevations can be output (meters) [NWaveElev points, separated by commas or white space; usused if NWaveElev = 0]
   0.0,   10.0, -10.0,   0.0,  10.0, -10.0,   0.0,  10.0, -10.0           WaveElevyi     - List of yi-coordinates for points where the incident wave elevations can be output (meters) [NWaveElev points, separated by commas or white space; usused if NWaveElev = 0]
---------------------- CURRENT -------------------------------------------------
   0           CurrMod        - Current profile model {0: none=no current, 1: standard, 2: user-defined from routine UserCurrent} (switch)
   0.0         CurrSSV0       - Sub-surface current velocity at still water level (m/s) [used only when CurrMod=1]
DEFAULT        CurrSSDir      - Sub-surface current heading direction (degrees) or DEFAULT (unquoted string) [used only when CurrMod=1]
  20.0         CurrNSRef      - Near-surface current reference depth (meters) [used only when CurrMod=1]
   0.0         CurrNSV0       - Near-surface current velocity at still water level (m/s) [used only when CurrMod=1]
   0.0         CurrNSDir      - Near-surface current heading direction (degrees) [used only when CurrMod=1]
   0.0         CurrDIV        - Depth-independent current velocity (m/s) [used only when CurrMod=1]
   0.0         CurrDIDir      - Depth-independent current heading direction (degrees) [used only when CurrMod=1]
---------------------- FLOATING PLATFORM ---------------------------------------
FALSE          HasWAMIT       - Using WAMIT (flag) 
""             WAMITFile      - Root name of WAMIT output files containing the linear, nondimensionalized, hydrostatic restoring matrix (.hst extension), frequency-dependent hydrodynamic added mass matrix and damping matrix (.1 extension), and frequency- and direction-dependent wave excitation force vector per unit wave amplitude (.3 extension) (quoted string) [MAKE SURE THE FREQUENCIES INHERENT IN THESE WAMIT FILES SPAN THE PHYSICALLY-SIGNIFICANT RANGE OF FREQUENCIES FOR THE GIVEN PLATFORM; THEY MUST CONTAIN THE ZERO- AND INFINITE-FREQUENCY LIMITS!]
   1.0         WAMITULEN      - Characteristic body length scale used to redimensionalize WAMIT output (meters)
8029.21        PtfmVol0       - Displaced volume of water when the platform is in its undisplaced position (m^3) [USE THE SAME VALUE COMPUTED BY WAMIT AS OUTPUT IN THE .OUT FILE!]
   0.0         PtfmCOBxt      - The xt offset of the center of buoyancy (COB) from the platform reference point (meters)  
   0.0         PtfmCOByt      - The yt offset of the center of buoyancy (COB) from the platform reference point (meters)  
   1           RdtnMod        - Radiation memory-effect model {0: no memory-effect calculation, 1: convolution, 2: state-space} (switch) [STATE-SPACE REQUIRES *.ss INPUT FILE]
  60.0         RdtnTMax       - Analysis time for wave radiation kernel calculations (sec) [determines RdtnDOmega=Pi/RdtnTMax in the cosine transform]  [MAKE SURE THIS IS LONG ENOUGH FOR THE RADIATION IMPULSE RESPONSE FUNCTIONS TO DECAY TO NEAR-ZERO FOR THE GIVEN PLATFORM!]
   0.025       RdtnDT         - Time step for wave radiation kernel calculations (sec) [DT<=RdtnDT<=0.1 recommended] [determines RdtnOmegaMax=Pi/RdtnDT in the cosine transform]
---------------------- FLOATING PLATFORM FORCE FLAGS  --------------------------
True           PtfmSgF        - Platform horizontal surge translation force (flag) or DEFAULT
True           PtfmSwF        - Platform horizontal sway translation force (flag) or DEFAULT
True           PtfmHvF        - Platform vertical heave translation force (flag) or DEFAULT
True           PtfmRF         - Platform roll tilt rotation force (flag) or DEFAULT
True           PtfmPF         - Platform pitch tilt rotation force (flag) or DEFAULT
True           PtfmYF         - Platform yaw rotation force (flag) or DEFAULT
---------------------- FLOATING PLATFORM ADDITIONAL STIFFNESS AND DAMPING  -----
0.0   0.0   0.0   0.0   0.0   0.0   AddF0    - Additional preload (N, N-m)
0.0   0.0   0.0   0.0   0.0   0.0   AddCLin  - Additional linear stiffness (N/m, N/rad, N-m/m, N-m/rad)
0.0   0.0   0.0   0.0   0.0   0.0
0.0   0.0   0.0   0.0   0.0   0.0
0.0   0.0   0.0   0.0   0.0   0.0
0.0   0.0   0.0   0.0   0.0   0.0
0.0   0.0   0.0   0.0   0.0   0.0
0.0   0.0   0.0   0.0   0.0   0.0   AddBLin  - Additional linear damping(N/(m/s), N/(rad/s), N-m/(m/s), N-m/(rad/s))
0.0   0.0   0.0   0.0   0.0   0.0
0.0   0.0   0.0   0.0   0.0   0.0
0.0   0.0   0.0   0.0   0.0   0.0
0.0   0.0   0.0   0.0   0.0   0.0
0.0   0.0   0.0   0.0   0.0   0.0
0.0   0.0   0.0   0.0   0.0   0.0   AddBQuad - Additional quadratic drag(N/(m/s)^2, N/(rad/s)^2, N-m(m/s)^2, N-m/(rad/s)^2)
0.0   0.0   0.0   0.0   0.0   0.0
0.0   0.0   0.0   0.0   0.0   0.0
0.0   0.0   0.0   0.0   0.0   0.0
0.0   0.0   0.0   0.0   0.0   0.0
0.0   0.0   0.0   0.0   0.0   0.0
---------------------- HEAVE COEFFICIENTS --------------------------------------
6              NHvCoef        - Number of heave coefficients (-)
HvCoefID  HvCd      HvCa
 (-)      (-)       (-)
  1       0.8       0.9
  2       0.9       0.9
  3       1.0       0.9
  4       0.8       1.0
  5       0.9       1.0
  6       1.0       1.0
---------------------- MEMBER JOINTS -------------------------------------------
3              NJoints        - Number of joints (-)   [must be exactly 0 or at least 2]
JointID   Jointx      Jointy     Jointz      JointHvID  JointOvrlp   [JointOvrlp= 0: do nothing at joint, 1: eliminate overlaps by calculating super member]
(-)         (m)         (m)        (m)          (-)      (switch)
 1          0.0         0.0         5.0          1          0
 2          0.0         0.0       -20.0          2          0
 3          0.0         0.0       -50.0          4          0
--------------------- MEMBER CROSS-SECTION PROPERTIES --------------------------
2              NPropSets      - Number of member property sets (-) 
PropSetID    PropD            PropThck      
(-)          (m)              (m)         
1            6.5             0.04  
2            4.5             0.05   
---------------------- SIMPLE HYDRODYNAMIC COEFFICIENTS (model 1) --------------
SimplCd      SimplCdMG    SimplCa     SimplCaMG
(-)           (-)           (-)         (-)
0.60          1.05          0.6         1.0
---------------------- DEPTH-BASED HYDRODYNAMIC COEFFICIENTS (model 2) ---------
2             NCoefDpth       - Number of depth-dependent coefficients (-) 
Dpth      DpthCd   DpthCdMG   DpthCa   DpthCaMG
(m)       (-)      (-)        (-)      (-)
-20        .2       .3         .5       .7
-50        .3       .35        .55      .75
---------------------- MEMBER-BASED HYDRODYNAMIC COEFFICIENTS (model 3) --------
 1         NCoefMembers       - Number of member-based coefficients (-)
MemberID   MemberCd1   MemberCd2   MemberCdMG1   MemberCdMG2   MemberCa1   MemberCa2   MemberCaMG1   MemberCaMG2
(-)        (-)         (-)         (-)           (-)           (-)         (-)         (-)           (-)
 3          .2           .3         .25           .4            .6          .7          .65          .75
---------------------- MEMBERS -------------------------------------------------
2              NMembers       - Number of members (-) 
MemberID   MJointID1   MJointID2   MPropSetID1  MPropSetID2   MDivSize  MCoefMod  PropWAMIT   [MCoefMod=1: use simple coeff table, 2: use depth-based coeff table, 3: use member-based coeff table] [ PropWAMIT = TRUE if member is modeled in WAMIT]
(-)           (-)         (-)         (-)          (-)           (m)       (switch)    (flag)
  1            1           2           1            1            25           1        false
 -2            2           3           1            1            30           1        false
---------------------- FILLED MEMBERS ------------------------------------------
0              NFillGroups     - Number of filled member groups (-) [If FillDens = DEFAULT, then FillDens = WtrDens; FillFSLoc is related to MSL2SWL]
FillNumM FillMList             FillFSLoc     FillDens
(-)      (-)                   (m)           (kg/m^3)
---------------------- MARINE GROWTH -------------------------------------------
0              NMGDepths      - Number of marine-growth depths specified (-) 
MGDpth     MGThck       MGDens
(m)        (m)         (kg/m^3)
---------------------- MEMBER OUTPUT LIST --------------------------------------
   2           NMOutputs      - Number of member outputs (-) [must be < 10]
MemberID   NOutLoc    NodeLocs [NOutLoc < 10; node locations are normalized distance from the start of the member, and must be >=0 and <= 1] [unused if NMOutputs=0]
  (-)        (-)        (-)
   1          2         0.0   1.0
  -2          2         0.0   1.0
---------------------- JOINT OUTPUT LIST ---------------------------------------
   3           NJOutputs      - Number of joint outputs (-) [Must must be < 10 ] 
   1 2 3       JOutLst        - List of JointIDs which are to be output (-)[unused if NJOutputs=0]
---------------------- OUTPUT --------------------------------------------------
True           HDSum          - Output a summary file [flag].
False          OutAll         - Output all user-specified member and joint loads (only at each member end, not interior locations) [flag]
1              OutSwtch       - Output requested channels to: [1=Hydrodyn.out, 2=GlueCode.out, 3=both files]
"ES11.4e2"     OutFmt         - Output format for numerical results (quoted string) [not checked for validity!]
"A11"          OutSFmt        - Output format for header strings (quoted string) [not checked for validity!]
---------------------- FLOATING PLATFORM OUTPUTS -------------------------------
"Wave1Elev"                                                        - Wave elevation at (  0,  0)
"Wave2Elev"                                                        - Wave elevation at (  0, 10)
"Wave3Elev"                                                        - Wave elevation at (  0,-10)
"Wave4Elev"                                                        - Wave elevation at ( 10,  0)
"Wave5Elev"                                                        - Wave elevation at ( 10, 10)
"Wave6Elev"                                                        - Wave elevation at ( 10,-10)
"Wave7Elev"                                                        - Wave elevation at (-10,  0)
"Wave8Elev"                                                        - Wave elevation at (-10, 10)
"Wave9Elev"                                                        - Wave elevation at (-10,-10)
"WavesFxi , WavesFyi , WavesFzi , WavesMxi , WavesMyi , WavesMzi"  - Longitudinal, lateral, and vertical wave-excitation forces and moments at the platform reference point
"HdrStcFxi, HdrStcFyi, HdrStcFzi, HdrStcMxi, HdrStcMyi, HdrStcMzi" - Longitudinal, lateral, and vertical hydrostatic forces and moments at the platform reference point
"RdtnFxi  , RdtnFyi  , RdtnFzi  , RdtnMxi  , RdtnMyi  , RdtnMzi"   - Longitudinal, lateral, and vertical radiation memory effect forces and moments at the platform reference point
END of Floating platform outputs
---------------------- MESH-BASED OUTPUTS --------------------------------------
"M1N1FVxi , M1N1FVyi , M1N1FVzi"                                   - Longitudinal, lateral, and vertical wave particle velocities at output member 1 and output node location 1
"M1N2FVxi , M1N2FVyi , M1N2FVzi"                                   - Longitudinal, lateral, and vertical wave particle velocities at output member 1 and output node location 2
"M1N2FVxi , M1N2FVyi , M1N2FVzi"                                   - Longitudinal, lateral, and vertical wave particle velocities at output member 2 and output node location 1
"M2N2FVxi , M2N2FVyi , M2N2FVzi"                                   - Longitudinal, lateral, and vertical wave particle velocities at output member 2 and output node location 2
"M1N1FAxi , M1N1FAyi , M1N1FAzi"                                   - Longitudinal, lateral, and vertical wave particle accelerations at output member 1 and output node location 1
"M1N2FAxi , M1N2FAyi , M1N2FAzi"                                   - Longitudinal, lateral, and vertical wave particle accelerations at output member 1 and output node location 2
"M2N1FAxi , M2N1FAyi , M2N1FAzi"                                   - Longitudinal, lateral, and vertical wave particle accelerations at output member 2 and output node location 1
"M2N2FAxi , M2N2FAyi , M2N2FAzi"                                   - Longitudinal, lateral, and vertical wave particle accelerations at output member 2 and output node location 2
"M1N1DynP , M1N2DynP , M2N1DynP,  M2N2DynP"                        - Fluid dynamic pressure at output member 1 and 2 at their first and second output node locations
"M1N1FBxi , M1N1FByi , M1N1FBzi,  M1N1MBxi , M1N1MByi , M1N1MBzi"  - Longitudinal, lateral, and vertical distributed buoyancy forces and moments at output member 1 and output node location 1
"M1N2FBxi , M1N2FByi , M1N2FBzi,  M1N2MBxi , M1N2MByi , M1N2MBzi"  - Longitudinal, lateral, and vertical distributed buoyancy forces and moments at output member 1 and output node location 2
"M2N1FBxi , M2N1FByi , M2N1FBzi,  M2N1MBxi , M2N1MByi , M2N1MBzi"  - Longitudinal, lateral, and vertical distributed buoyancy forces and moments at output member 2 and output node location 1
"M2N2FBxi , M2N2FByi , M2N2FBzi,  M2N2MBxi , M2N2MByi , M2N2MBzi"  - Longitudinal, lateral, and vertical distributed buoyancy forces and moments at output member 2 and output node location 2
"M1N1FBFxi, M1N1FBFyi, M1N1FBFzi, M1N1MBFxi, M1N1MBFyi, M1N1MBFzi" - Longitudinal, lateral, and vertical distributed interal buoyancy forces and moments at output member 1 and output node location 1
"M1N2FBFxi, M1N2FBFyi, M1N2FBFzi, M1N2MBFxi, M1N2MBFyi, M1N2MBFzi" - Longitudinal, lateral, and vertical distributed interal buoyancy forces and moments at output member 1 and output node location 2
"M2N1FBFxi, M2N1FBFyi, M2N1FBFzi, M2N1MBFxi, M2N1MBFyi, M2N1MBFzi" - Longitudinal, lateral, and vertical distributed interal buoyancy forces and moments at output member 2 and output node location 1
"M2N2FBFxi, M2N2FBFyi, M2N2FBFzi, M2N2MBFxi, M2N2MBFyi, M2N2MBFzi" - Longitudinal, lateral, and vertical distributed interal buoyancy forces and moments at output member 2 and output node location 2
"M1N1FDxi , M1N1FDyi , M1N1FDzi"                                   - Longitudinal, lateral, and vertical distributed drag forces at output member 1 and output node location 1
"M1N2FDxi , M1N2FDyi , M1N2FDzi"                                   - Longitudinal, lateral, and vertical distributed drag forces at output member 1 and output node location 2
"M2N1FDxi , M2N1FDyi , M2N1FDzi"                                   - Longitudinal, lateral, and vertical distributed drag forces at output member 2 and output node location 1
"M2N2FDxi , M2N2FDyi , M2N2FDzi"                                   - Longitudinal, lateral, and vertical distributed drag forces at output member 2 and output node location 2
"M1N1FIxi , M1N1FIyi , M1N1FIzi"                                   - Longitudinal, lateral, and vertical distributed inertial forces at output member 1 and output node location 1
"M1N2FIxi , M1N2FIyi , M1N2FIzi"                                   - Longitudinal, lateral, and vertical distributed inertial forces at output member 1 and output node location 2
"M2N1FIxi , M2N1FIyi , M2N1FIzi"                                   - Longitudinal, lateral, and vertical distributed inertial forces at output member 2 and output node location 1
"M2N2FIxi , M2N2FIyi , M2N2FIzi"                                   - Longitudinal, lateral, and vertical distributed inertial forces at output member 2 and output node location 2
"M1N1FDPxi, M1N1FDPyi, M1N1FDPzi"                                  - Longitudinal, lateral, and vertical distributed dynamic pressure forces at output member 1 and output node location 1
"M1N2FDPxi, M1N2FDPyi, M1N2FDPzi"                                  - Longitudinal, lateral, and vertical distributed dynamic pressure forces at output member 1 and output node location 2
"M2N1FDPxi, M2N1FDPyi, M2N1FDPzi"                                  - Longitudinal, lateral, and vertical distributed dynamic pressure forces at output member 2 and output node location 1
"M2N2FDPxi, M2N2FDPyi, M2N2FDPzi"                                  - Longitudinal, lateral, and vertical distributed dynamic pressure forces at output member 2 and output node location 2
"M1N1FMGxi, M1N1FMGyi, M1N1FMGzi"                                  - Longitudinal, lateral, and vertical distributed marine growth weight at output member 1 and output node location 1
"M1N2FMGxi, M1N2FMGyi, M1N2FMGzi"                                  - Longitudinal, lateral, and vertical distributed marine growth weight at output member 1 and output node location 2
"M2N1FMGxi, M2N1FMGyi, M2N1FMGzi"                                  - Longitudinal, lateral, and vertical distributed marine growth weight at output member 2 and output node location 1
"M2N2FMGxi, M2N2FMGyi, M2N2FMGzi"                                  - Longitudinal, lateral, and vertical distributed marine growth weight at output member 2 and output node location 2
"J1FVxi   , J1FVyi   , J1FVzi"                                     - Longitudinal, lateral, and vertical wave particle accelerations at output joint 1
"J2FVxi   , J2FVyi   , J2FVzi"                                     - Longitudinal, lateral, and vertical wave particle accelerations at output joint 2
"J3FVxi   , J3FVyi   , J3FVzi"                                     - Longitudinal, lateral, and vertical wave particle accelerations at output joint 3
"J1FAxi   , J1FAyi   , J1FAzi"                                     - Longitudinal, lateral, and vertical wave particle accelerations at output joint 1
"J2FAxi   , J2FAyi   , J2FAzi"                                     - Longitudinal, lateral, and vertical wave particle accelerations at output joint 2
"J3FAxi   , J3FAyi   , J3FAzi"                                     - Longitudinal, lateral, and vertical wave particle accelerations at output joint 3
"J1FBxi   , J1FByi   , J1FBzi,   J1MBxi   , J1MByi   , J1MBzi"     - Longitudinal, lateral, and vertical buoyancy forces and moments at output joint 1
"J2FBxi   , J2FByi   , J2FBzi,   J2MBxi   , J2MByi   , J2MBzi"     - Longitudinal, lateral, and vertical buoyancy forces and moments at output joint 2
"J3FBxi   , J3FByi   , J3FBzi,   J3MBxi   , J3MByi   , J3MBzi"     - Longitudinal, lateral, and vertical buoyancy forces and moments at output joint 3
"J1FBFxi  , J1FBFyi  , J1FBFzi,  J1MBFxi  , J1MBFyi  , J1MBFzi"    - Longitudinal, lateral, and vertical interal buoyancy forces and moments at output joint 1
"J2FBFxi  , J2FBFyi  , J2FBFzi,  J2MBFxi  , J2MBFyi  , J2MBFzi"    - Longitudinal, lateral, and vertical interal buoyancy forces and moments at output joint 2
"J3FBFxi  , J3FBFyi  , J3FBFzi,  J3MBFxi  , J3MBFyi  , J3MBFzi"    - Longitudinal, lateral, and vertical interal buoyancy forces and moments at output joint 3
"J1FDxi   , J1FDyi   , J1FDzi"                                     - Longitudinal, lateral, and vertical drag forces at output joint 1
"J2FDxi   , J2FDyi   , J2FDzi"                                     - Longitudinal, lateral, and vertical drag forces at output joint 2
"J3FDxi   , J3FDyi   , J3FDzi"                                     - Longitudinal, lateral, and vertical drag forces at output joint 3
END of mesh-based outputs and HydroDyn input file (the word "END" must appear in the first 3 columns of this last line).
